*Material, name=cdp36p6sb
*Density
2.4e-09
*Elastic
33730, 0.2
*Concrete Damaged Plasticity
38.5, 0.1, 1.16, 0.6667, 0
*Concrete Compression Hardening
15.440000, 0.000000
32.877821, 0.000330
38.599924, 0.000992
34.980543, 0.001820
24.025279, 0.002927
0.386000, 0.004728
*Concrete Tension Stiffening
2.900000, 0.000000
1.908006, 0.006438
0.029000, 0.070814
*Concrete Compression Damage
0.000000, 0.000000
0.177374, 0.000330
0.419197, 0.000992
0.553518, 0.001820
0.590000, 0.002927
0.590000, 0.004728
*Concrete Tension Damage
0.000000, 0.000000
0.690000, 0.006438
0.900000, 0.070814
