*Material, name=cdp41p23MPa
*Density
2.4e-09
*Elastic
34490, 0.2
*Concrete Damaged Plasticity
38.5, 0.1, 1.16, 0.6667, 0.0005
*Concrete Compression Hardening
16.520000, 0.000000
22.894032, 0.000056
28.662156, 0.000144
33.128055, 0.000254
36.642601, 0.000393
39.188113, 0.000559
40.810663, 0.000768
41.299792, 0.000994
40.994393, 0.001286
40.103658, 0.001632
38.619201, 0.002035
36.331129, 0.002542
33.582120, 0.003081
30.212511, 0.003693
26.213236, 0.004383
0.413000, 0.008793
*Concrete Tension Stiffening, type=DISPLACEMENT
3.100000, 0.000000
2.959100, 0.002021
2.696222, 0.006063
2.345036, 0.012127
1.693306, 0.026275
0.924931, 0.052550
0.289107, 0.103079
0.031000, 0.200095
*Concrete Compression Damage
0.000000, 0.000000
0.017816, 0.000056
0.045644, 0.000144
0.079843, 0.000254
0.121212, 0.000393
0.168869, 0.000559
0.224991, 0.000768
0.281148, 0.000994
0.323982, 0.001286
0.366064, 0.001632
0.405873, 0.002035
0.444301, 0.002542
0.473065, 0.003081
0.492677, 0.003693
0.500000, 0.004383
0.500000, 0.008793
*Concrete Tension Damage, type=DISPLACEMENT
0.000000, 0.000000
0.380000, 0.002021
0.640000, 0.006063
0.760000, 0.012127
0.850000, 0.026275
0.890000, 0.052550
0.900000, 0.103079
0.900000, 0.200095
