*Material, name=cdp42mpa
*Density
2.4e-09
*Elastic
34690, 0.2
*Concrete Damaged Plasticity
38.5, 0.1, 1.16, 0.6667, 0.0005
*Concrete Compression Hardening
16.800000, 0.000000
23.225441, 0.000055
29.057295, 0.000142
33.588299, 0.000251
37.169387, 0.000388
39.779220, 0.000552
41.463361, 0.000759
41.999807, 0.000983
41.720477, 0.001269
40.845626, 0.001607
39.364886, 0.002002
37.064709, 0.002498
34.287332, 0.003025
30.870542, 0.003624
26.802937, 0.004299
0.420000, 0.008619
*Concrete Tension Stiffening
3.100000, 0.000000
2.959100, 0.002021
2.696222, 0.006063
2.345036, 0.012127
1.693306, 0.026275
0.924931, 0.052550
0.289107, 0.103079
0.031000, 0.200095
*Concrete Compression Damage
0.000000, 0.000000
0.017536, 0.000055
0.044945, 0.000142
0.078693, 0.000251
0.119618, 0.000388
0.166904, 0.000552
0.222779, 0.000759
0.278900, 0.000983
0.321854, 0.001269
0.364183, 0.001607
0.404356, 0.002002
0.443270, 0.002498
0.472504, 0.003025
0.492506, 0.003624
0.500000, 0.004299
0.500000, 0.008619
*Concrete Tension Damage
0.000000, 0.000000
0.380000, 0.002021
0.640000, 0.006063
0.760000, 0.012127
0.850000, 0.026275
0.890000, 0.052550
0.900000, 0.103079
0.900000, 0.200095
