*Material, name=cdp98p7mpa
*Density
2.4e-09
*Elastic
46120, 0.2
*Concrete Damaged Plasticity
38.5, 0.1, 1.16, 0.6667, 0
*Concrete Compression Hardening
39.480000, 0.000000
78.601715, 0.000133
98.700000, 0.000669
98.700000, 0.000669
*Concrete Tension Stiffening
5.300000, 0.000000
3.487046, 0.004172
0.053000, 0.045892
*Concrete Compression Damage
0.000000, 0.000000
0.060882, 0.000133
0.170000, 0.000669
0.170000, 0.000669
*Concrete Tension Damage
0.000000, 0.000000
0.520000, 0.004172
0.700000, 0.045892
