*Material, name=cdp42p5mpa
*Density
2.4e-09
*Elastic
34830, 0.2
*Concrete Damaged Plasticity
38.5, 0.1, 1.16, 0.6667, 0.0005
*Concrete Compression Hardening
17.000000, 0.000000
23.835743, 0.000058
29.338461, 0.000140
34.170426, 0.000256
37.738778, 0.000393
40.462193, 0.000570
41.994147, 0.000765
42.500000, 0.001005
42.500000, 0.002248
*Concrete Tension Stiffening
3.200000, 0.000000
3.054555, 0.001958
2.783197, 0.005874
2.420683, 0.011748
1.747929, 0.025454
0.954767, 0.050908
0.298433, 0.099858
0.032000, 0.193842
*Concrete Compression Damage
0.000000, 0.000000
0.014476, 0.000058
0.035557, 0.000140
0.066895, 0.000256
0.105685, 0.000393
0.157316, 0.000570
0.215400, 0.000765
0.285310, 0.001005
0.500000, 0.002248
*Concrete Tension Damage
0.000000, 0.000000
0.380000, 0.001958
0.630000, 0.005874
0.760000, 0.011748
0.850000, 0.025454
0.890000, 0.050908
0.900000, 0.099858
0.900000, 0.193842
